Version 4
SHEET 1 1644 680
WIRE 64 64 -128 64
WIRE 128 64 64 64
WIRE 448 64 384 64
WIRE 496 64 448 64
WIRE 624 64 496 64
WIRE 1072 64 912 64
WIRE 1184 64 1072 64
WIRE 1264 64 1184 64
WIRE 1472 64 1264 64
WIRE -128 80 -128 64
WIRE 912 128 912 64
WIRE 1072 160 1072 144
WIRE 1184 160 1184 128
WIRE 1184 160 1072 160
WIRE 1264 160 1264 128
WIRE 1264 160 1184 160
WIRE 1424 160 1264 160
WIRE -128 176 -128 160
WIRE 1072 176 1072 160
WIRE 1184 192 1184 160
WIRE 1264 192 1264 160
WIRE 64 208 64 128
WIRE 256 208 256 160
WIRE 256 208 64 208
WIRE 448 208 448 128
WIRE 448 208 256 208
WIRE 496 208 496 128
WIRE 496 208 448 208
WIRE 544 208 496 208
WIRE 544 224 544 208
WIRE -32 240 -128 240
WIRE 256 240 256 208
WIRE -128 256 -128 240
WIRE 912 256 912 208
WIRE 1072 256 912 256
WIRE 1184 256 1072 256
WIRE 1264 256 1184 256
WIRE 1472 256 1264 256
WIRE 64 272 64 208
WIRE 448 272 448 208
WIRE 496 272 496 208
WIRE -32 336 -32 240
WIRE 64 336 -32 336
WIRE 128 336 64 336
WIRE 448 336 384 336
WIRE 496 336 448 336
WIRE 624 336 496 336
WIRE -128 352 -128 336
FLAG 544 224 0
FLAG 1424 160 0
FLAG -128 176 0
FLAG -128 352 0
FLAG 624 64 V+
FLAG 624 336 V-
SYMBOL 7805 256 64 R0
SYMATTR InstName U1
SYMBOL 7905 256 336 M180
SYMATTR InstName U2
SYMBOL cap 432 64 R0
WINDOW 0 -19 49 Left 2
WINDOW 3 -44 13 Left 2
SYMATTR InstName C1
SYMATTR Value 100n
SYMBOL cap 480 64 R0
SYMATTR InstName C2
SYMATTR Value 47µ
SYMBOL cap 432 272 R0
WINDOW 0 -21 13 Left 2
WINDOW 3 -47 49 Left 2
SYMATTR InstName C3
SYMATTR Value 100n
SYMBOL cap 480 272 R0
SYMATTR InstName C4
SYMATTR Value 47µ
SYMBOL cap 48 64 R0
SYMATTR InstName C5
SYMATTR Value 100µ
SYMBOL cap 48 272 R0
SYMATTR InstName C6
SYMATTR Value 100µ
SYMBOL res 1056 48 R0
SYMATTR InstName R1
SYMATTR Value 100k
SYMBOL res 1056 160 R0
SYMATTR InstName R2
SYMATTR Value 100k
SYMBOL cap 1168 64 R0
SYMATTR InstName C7
SYMATTR Value 10µ
SYMBOL cap 1168 192 R0
SYMATTR InstName C8
SYMATTR Value 10µ
SYMBOL voltage 912 112 R0
WINDOW 123 0 0 Left 0
WINDOW 39 0 0 Left 0
SYMATTR InstName V2
SYMATTR Value 10
SYMBOL cap 1248 64 R0
SYMATTR InstName C9
SYMATTR Value 100n
SYMBOL cap 1248 192 R0
SYMATTR InstName C10
SYMATTR Value 100n
SYMBOL voltage -128 64 R0
WINDOW 123 0 0 Left 0
WINDOW 39 0 0 Left 0
SYMATTR InstName V1
SYMATTR Value 12
SYMBOL voltage -128 240 R0
WINDOW 123 0 0 Left 0
WINDOW 39 0 0 Left 0
SYMATTR InstName V3
SYMATTR Value -12
TEXT -168 400 Left 2 !.tran 5
