Version 4
SHEET 1 1380 868
WIRE 128 -368 128 -384
WIRE 64 -320 48 -320
WIRE 192 -320 176 -320
WIRE 224 -320 192 -320
WIRE 224 -304 224 -320
WIRE -64 -288 -192 -288
WIRE -192 -240 -192 -288
WIRE -160 -240 -192 -240
WIRE 160 -240 160 -256
WIRE 192 -240 192 -320
WIRE 192 -240 160 -240
WIRE -64 -224 -64 -288
WIRE -64 -224 -96 -224
WIRE 96 -224 96 -256
WIRE 96 -224 -64 -224
WIRE 128 -224 128 -256
WIRE 240 -224 128 -224
WIRE 352 -224 320 -224
WIRE 448 -224 432 -224
WIRE -1008 -208 -1120 -208
WIRE -960 -208 -1008 -208
WIRE -656 -208 -704 -208
WIRE -592 -208 -656 -208
WIRE -480 -208 -592 -208
WIRE -160 -208 -288 -208
WIRE -1072 -128 -1120 -128
WIRE -1072 -112 -1072 -128
WIRE -1008 -96 -1008 -144
WIRE -832 -96 -832 -112
WIRE -832 -96 -1008 -96
WIRE -656 -96 -656 -144
WIRE -656 -96 -832 -96
WIRE -592 -96 -592 -144
WIRE -592 -96 -656 -96
WIRE -560 -96 -592 -96
WIRE 352 -96 352 -224
WIRE 368 -96 352 -96
WIRE -560 -80 -560 -96
WIRE 448 -80 448 -224
WIRE 448 -80 432 -80
WIRE 464 -80 448 -80
WIRE 560 -80 544 -80
WIRE 624 -80 560 -80
WIRE 720 -80 688 -80
WIRE -1072 -64 -1136 -64
WIRE -832 -64 -832 -96
WIRE 368 -64 128 -64
WIRE -1136 -48 -1136 -64
WIRE -128 -48 -256 -48
WIRE -1008 -32 -1008 -96
WIRE -656 -32 -656 -96
WIRE -592 -32 -592 -96
WIRE -256 0 -256 -48
WIRE -224 0 -256 0
WIRE 560 0 560 -80
WIRE -128 16 -128 -48
WIRE -128 16 -160 16
WIRE -112 16 -128 16
WIRE -16 16 -32 16
WIRE 96 16 -16 16
WIRE 208 16 160 16
WIRE -1072 32 -1072 -64
WIRE -1008 32 -1072 32
WIRE -960 32 -1008 32
WIRE -656 32 -704 32
WIRE -592 32 -656 32
WIRE -480 32 -592 32
WIRE -224 32 -288 32
WIRE -16 32 -16 16
WIRE 96 32 96 16
WIRE 128 32 128 -64
WIRE 160 32 160 16
WIRE -288 48 -288 32
WIRE 560 80 560 64
WIRE 64 96 48 96
WIRE 208 96 208 16
WIRE 208 96 176 96
WIRE -16 112 -16 96
WIRE 208 112 208 96
WIRE -288 144 -288 128
WIRE 48 160 48 96
WIRE 128 160 128 144
WIRE 560 160 560 144
WIRE 48 176 48 160
WIRE -944 208 -944 176
WIRE -736 208 -736 176
WIRE -944 304 -944 288
WIRE -736 304 -736 288
FLAG -288 144 0
FLAG -16 112 0
FLAG 720 -80 out
FLAG -288 -128 0
FLAG -128 -256 vdd
FLAG 400 -112 vdd
FLAG -192 -16 vdd
FLAG -128 -192 vcc
FLAG -192 48 vcc
FLAG 400 -48 vcc
FLAG -944 304 0
FLAG -944 176 GPIO
FLAG -736 304 0
FLAG -736 176 3v3
FLAG -560 -80 0
FLAG -1072 -112 0
FLAG -1136 32 0
FLAG -480 -208 vdd
FLAG -480 32 vcc
FLAG 560 160 0
FLAG 208 112 0
FLAG 224 -304 0
FLAG 128 -384 GPIO
FLAG 128 160 GPIO
FLAG 48 -320 3v3
FLAG 48 160 3v3
SYMBOL OpAmps\\MAX44248 -192 -48 R0
WINDOW 3 -157 63 Left 2
SYMATTR InstName U1
SYMBOL OpAmps\\MAX44248 -128 -288 R0
SYMATTR InstName U2
SYMBOL OpAmps\\MAX44248 400 -144 R0
WINDOW 3 -140 107 Left 2
SYMATTR InstName U3
SYMBOL voltage -288 32 R0
WINDOW 123 0 0 Left 0
WINDOW 39 0 0 Left 0
WINDOW 3 -121 148 Left 2
SYMATTR Value PWL(0 0.9 1 1.1 2 10 3 -10)
SYMATTR InstName V1
SYMBOL res 336 -240 R90
WINDOW 0 0 56 VBottom 2
WINDOW 3 32 56 VTop 2
SYMATTR InstName R1
SYMATTR Value 13k
SYMBOL res 448 -240 R90
WINDOW 0 0 56 VBottom 2
WINDOW 3 32 56 VTop 2
SYMATTR InstName R2
SYMATTR Value 100k
SYMBOL res -16 0 R90
WINDOW 0 0 56 VBottom 2
WINDOW 3 32 56 VTop 2
SYMATTR InstName R3
SYMATTR Value 1k
SYMBOL cap -32 32 R0
WINDOW 0 30 18 Left 2
SYMATTR InstName C1
SYMATTR Value 1µ
SYMBOL voltage -288 -224 R0
WINDOW 123 0 0 Left 0
WINDOW 39 0 0 Left 0
SYMATTR InstName V4
SYMATTR Value 1
SYMBOL voltage -944 192 R0
WINDOW 3 -191 150 Left 2
WINDOW 123 0 0 Left 0
WINDOW 39 0 0 Left 0
SYMATTR Value PWL(0 0 3 0 3.01 3.3 5 3.3)
SYMATTR InstName V3
SYMBOL voltage -736 192 R0
WINDOW 123 0 0 Left 0
WINDOW 39 0 0 Left 0
SYMATTR InstName V6
SYMATTR Value 3.3
SYMBOL 7805 -832 -208 R0
SYMATTR InstName U4
SYMBOL 7905 -832 32 R180
SYMATTR InstName U5
SYMBOL cap -672 -208 R0
WINDOW 3 -9 -15 Left 2
SYMATTR Value 100n
SYMATTR InstName C2
SYMBOL cap -672 -32 R0
WINDOW 3 -3 80 Left 2
SYMATTR Value 100n
SYMATTR InstName C3
SYMBOL cap -608 -32 R0
WINDOW 3 1 80 Left 2
SYMATTR Value 47µ
SYMATTR InstName C4
SYMBOL cap -608 -208 R0
WINDOW 3 -1 -15 Left 2
SYMATTR Value 47µ
SYMATTR InstName C5
SYMBOL cap -1024 -208 R0
WINDOW 3 -7 -14 Left 2
SYMATTR Value 100µ
SYMATTR InstName C6
SYMBOL cap -1024 -32 R0
WINDOW 3 -11 78 Left 2
SYMATTR Value 100µ
SYMATTR InstName C7
SYMBOL voltage -1120 -224 R0
WINDOW 123 0 0 Left 0
WINDOW 39 0 0 Left 0
SYMATTR InstName V5
SYMATTR Value 12
SYMBOL voltage -1136 -64 R0
WINDOW 123 0 0 Left 0
WINDOW 39 0 0 Left 0
SYMATTR InstName V8
SYMATTR Value -12
SYMBOL AutoGenerated\\MMBZ5222B 560 112 R270
WINDOW 3 21 80 Top 2
SYMATTR InstName U6
SYMBOL AutoGenerated\\MMBZ5222B 560 32 R90
WINDOW 3 59 -91 Top 2
SYMATTR InstName U7
SYMBOL res 560 -96 R90
WINDOW 0 0 56 VBottom 2
WINDOW 3 32 56 VTop 2
SYMATTR InstName R4
SYMATTR Value 330
SYMBOL AutoGenerated\\ADG839 128 -288 M90
WINDOW 3 -110 -83 VTop 2
SYMATTR InstName U9
SYMBOL AutoGenerated\\ADG839 128 64 R270
WINDOW 3 -84 71 VBottom 2
SYMATTR InstName U10
SYMBOL diode 624 -64 R270
WINDOW 0 32 32 VTop 2
WINDOW 3 0 32 VBottom 2
SYMATTR InstName D1
SYMATTR Value Schottky diode
TEXT -1000 400 Left 2 !.tran 5
TEXT -1160 464 Left 2 !*ZETEX BAT54 Spice Model v1.0 Last Revised 25/04/00\n    *\n    .MODEL BAT54 D Is=649e-9 N=1.04 RS=2.09 IKF=20e-3\n    +XTI=2 EG=0.58 \n    +CJO=12.4e-12 M=0.381 VJ=0.391\n    +BV=50 IBV=100e-6 ISR=431e-9 NR=4.99\n    *\n    *$\n    *
