Version 4
SHEET 1 2756 1488
WIRE -80 784 -176 784
WIRE -208 816 -304 816
WIRE -176 816 -176 784
WIRE -160 816 -176 816
WIRE -304 832 -304 816
WIRE -80 832 -80 784
WIRE -80 832 -96 832
WIRE 64 832 -80 832
WIRE -208 848 -208 816
WIRE -160 848 -208 848
WIRE -624 864 -624 848
WIRE 64 880 64 832
WIRE 192 880 64 880
WIRE 288 880 272 880
WIRE 304 880 288 880
WIRE 416 880 384 880
WIRE -624 960 -624 944
WIRE -624 960 -704 960
WIRE -704 976 -704 960
WIRE 336 976 336 960
WIRE -624 992 -624 960
WIRE 288 992 288 880
WIRE 304 992 288 992
WIRE -160 1008 -256 1008
WIRE 416 1008 416 880
WIRE 416 1008 368 1008
WIRE 544 1008 416 1008
WIRE -848 1024 -848 960
WIRE 304 1024 32 1024
WIRE -256 1040 -256 1008
WIRE -240 1040 -256 1040
WIRE -160 1056 -160 1008
WIRE -160 1056 -176 1056
WIRE 32 1056 32 1024
WIRE 32 1056 -160 1056
WIRE 336 1056 336 1040
WIRE -240 1072 -304 1072
WIRE -624 1104 -624 1072
WIRE -304 1104 -304 1072
WIRE -848 1136 -848 1104
WIRE 544 1152 544 1120
WIRE -304 1200 -304 1184
WIRE -528 1216 -624 1216
WIRE -624 1232 -624 1216
WIRE 544 1264 544 1216
WIRE -624 1344 -624 1312
FLAG -704 976 0
FLAG -624 848 vdd
FLAG -624 1104 vcc
FLAG 336 960 vdd
FLAG 336 1056 vcc
FLAG -304 912 0
FLAG -304 1200 0
FLAG -304 1072 in3
FLAG -208 1088 vcc
FLAG -208 1024 vdd
FLAG 544 1264 0
FLAG -128 864 vcc
FLAG -128 800 vdd
FLAG -624 1344 0
FLAG -528 1216 GPIO
FLAG -848 1136 0
FLAG -848 960 3
SYMBOL voltage -624 848 R0
WINDOW 123 0 0 Left 0
WINDOW 39 0 0 Left 0
SYMATTR InstName V9
SYMATTR Value 4
SYMBOL voltage -624 976 R0
WINDOW 123 0 0 Left 0
WINDOW 39 0 0 Left 0
SYMATTR InstName V10
SYMATTR Value 4
SYMBOL res 400 864 R90
WINDOW 0 0 56 VBottom 2
WINDOW 3 32 56 VTop 2
SYMATTR InstName R8
SYMATTR Value 100k
SYMBOL voltage -304 816 R0
WINDOW 0 -32 56 VBottom 2
WINDOW 3 32 56 VTop 2
WINDOW 123 0 0 Left 0
WINDOW 39 0 0 Left 0
SYMATTR InstName V11
SYMATTR Value 1.6
SYMBOL res 288 864 R90
WINDOW 0 0 56 VBottom 2
WINDOW 3 32 56 VTop 2
SYMATTR InstName 13
SYMATTR Value 16k
SYMBOL voltage -304 1088 R0
WINDOW 123 33 82 Left 2
WINDOW 39 0 0 Left 0
WINDOW 0 36 57 Left 2
WINDOW 3 -99 145 Left 2
SYMATTR InstName V12
SYMATTR Value PWL(0 1.4 1 1.6 2 10 3 -10)
SYMBOL OpAmps\\MAX44248 336 944 R0
SYMATTR InstName U12
SYMBOL OpAmps\\MAX44248 -208 992 R0
SYMATTR InstName U13
SYMBOL AutoGenerated\\MMBZ5222B 544 1088 R90
WINDOW 3 49 -107 Top 2
SYMATTR InstName U14
SYMBOL AutoGenerated\\MMBZ5222B 544 1184 R270
WINDOW 3 45 57 Top 2
SYMATTR InstName U15
SYMBOL OpAmps\\MAX44248 -128 768 R0
WINDOW 3 -56 143 Left 2
SYMATTR InstName U16
SYMBOL voltage -624 1216 R0
WINDOW 3 -282 160 Left 2
WINDOW 123 0 0 Left 0
WINDOW 39 0 0 Left 0
SYMATTR Value PWL(0 0 3 0 3.01 3.3 5 3.3)
SYMATTR InstName V13
SYMBOL voltage -848 1008 R0
WINDOW 123 0 0 Left 0
WINDOW 39 0 0 Left 0
SYMATTR InstName V1
SYMATTR Value 3
TEXT -640 1424 Left 2 !.tran 0 1 0
